/*--------------------------------*- C++ -*----------------------------------*\
| =========                 |                                                 |
| \\      /  F ield         | OpenFOAM: The Open Source CFD Toolbox           |
|  \\    /   O peration     | Version:  v1612+                                |
|   \\  /    A nd           | Web:      www.OpenFOAM.com                      |
|    \\/     M anipulation  |                                                 |
\*---------------------------------------------------------------------------*/
FoamFile
{
    version     2.0;
    format      ascii;
    class       polyBoundaryMesh;
    location    "constant/polyMesh";
    object      boundary;
}
// * * * * * * * * * * * * * * * * * * * * * * * * * * * * * * * * * * * * * //

10
(
    seabed_topleft_surface
    {
        type            patch;
        physicalType    patch;
        nFaces          72;
        startFace       2916;
    }
    seabed_topright_surface
    {
        type            patch;
        physicalType    patch;
        nFaces          72;
        startFace       2988;
    }
    breakwater_top_surface
    {
        type            patch;
        physicalType    patch;
        nFaces          36;
        startFace       3060;
    }
    breakwater_left_surface
    {
        type            patch;
        physicalType    patch;
        nFaces          24;
        startFace       3096;
    }
    breakwater_right_surface
    {
        type            patch;
        physicalType    patch;
        nFaces          24;
        startFace       3120;
    }
    water_front_surface
    {
        type            patch;
        physicalType    patch;
        nFaces          186;
        startFace       3144;
    }
    water_back_surface
    {
        type            patch;
        physicalType    patch;
        nFaces          186;
        startFace       3330;
    }
    water_left_surface
    {
        type            patch;
        physicalType    patch;
        nFaces          42;
        startFace       3516;
    }
    water_right_surface
    {
        type            patch;
        physicalType    patch;
        nFaces          42;
        startFace       3558;
    }
    water_top_surface
    {
        type            patch;
        physicalType    patch;
        nFaces          180;
        startFace       3600;
    }
)

// ************************************************************************* //
